LTspice 24.1.7 for Windows
Circuit: C:\home\ece2001\reports\report7\circuit72.net
Start Time: Sat Apr 12 14:42:19 2025
solver = Normal
Maximum thread count: 32
tnom = 27
temp = 27
method = trap
Direct Newton iteration for .op point succeeded.
Total elapsed time: 0.030 seconds.

Files loaded:
C:\home\ece2001\reports\report7\circuit72.net
C:\Users\Arturo\Documents\LTspice\lm741\lm741.lib

