LTspice 24.1.7 for Windows
Circuit: C:\home\ece2001\reports\report7\Draft1.net
Start Time: Mon Apr 14 20:55:40 2025
solver = Normal
Maximum thread count: 32
tnom = 27
temp = 27
method = trap
WARNING: Node n002 is floating.
WARNING: Node n012 is floating.

Direct Newton iteration for .op point succeeded.
Total elapsed time: 0.070 seconds.

Files loaded:
C:\home\ece2001\reports\report7\Draft1.net
C:\Users\Arturo\AppData\Local\LTspice\lib\cmp\standard.mos
C:\Users\Arturo\Documents\LTspice\lm741\lm741.lib
C:\Users\Arturo\AppData\Local\LTspice\lib\sub\UniversalOpAmp1.lib

