LTspice 24.1.7 for Windows
Circuit: C:\home\ece2001\reports\report7\Draft1.net
Start Time: Fri Apr 18 17:49:54 2025
solver = Normal
Maximum thread count: 32
tnom = 27
temp = 27
method = trap
.OP point found by inspection.
Total elapsed time: 0.019 seconds.

Files loaded:
C:\home\ece2001\reports\report7\Draft1.net

