LTspice 24.1.5 for Windows
Circuit: Z:\home\art\school\ece2001\reports\report2\circuit2.net
Start Time: Sat Mar 29 15:54:00 2025
solver = Normal
Maximum thread count: 32
tnom = 27
temp = 27
method = trap
Direct Newton iteration for .op point succeeded.
Total elapsed time: 0.018 seconds.

Files loaded:
Z:\home\art\school\ece2001\reports\report2\circuit2.net

