LTspice 24.1.5 for Windows
Circuit: Z:\home\art\school\ece2001\lecturenotes\Draft2.net
Start Time: Thu Apr  3 09:09:43 2025
solver = Normal
Maximum thread count: 32
tnom = 27
temp = 27
method = trap
.OP point found by inspection.
Total elapsed time: 0.018 seconds.

Files loaded:
Z:\home\art\school\ece2001\lecturenotes\Draft2.net

