LTspice 24.1.5 for Windows
Circuit: Z:\home\art\school\ece2001\lecturenotes\Draft4.net
Start Time: Thu Apr  3 09:28:46 2025
solver = Normal
Maximum thread count: 32
tnom = 27
temp = 27
method = trap
.OP point found by inspection.
Total elapsed time: 0.019 seconds.

Files loaded:
Z:\home\art\school\ece2001\lecturenotes\Draft4.net

