LTspice 24.1.5 for Windows
Circuit: Z:\home\art\school\ece2001\lecturenotes\Draft3.net
Start Time: Thu Apr  3 09:26:44 2025
solver = Normal
Maximum thread count: 32
tnom = 27
temp = 27
method = trap
.OP point found by inspection.
Total elapsed time: 0.022 seconds.

Files loaded:
Z:\home\art\school\ece2001\lecturenotes\Draft3.net

