LTspice 24.1.5 for Windows
Circuit: C:\home\ece2001\lecturenotes\pas61.net
Start Time: Fri Mar 28 13:34:01 2025
solver = Normal
Maximum thread count: 8
tnom = 27
temp = 27
method = trap
Direct Newton iteration for .op point succeeded.
Total elapsed time: 0.107 seconds.

Files loaded:
C:\home\ece2001\lecturenotes\pas61.net

