LTspice 24.1.5 for Windows
Circuit: Z:\home\art\school\ECE2001-Electrical-Circuits\lecturenotes\pas66.net
Start Time: Mon Mar 24 18:52:37 2025
solver = Normal
Maximum thread count: 32
tnom = 27
temp = 27
method = trap
Direct Newton iteration for .op point succeeded.
Total elapsed time: 0.024 seconds.

Files loaded:
Z:\home\art\school\ECE2001-Electrical-Circuits\lecturenotes\pas66.net

