LTspice 24.1.5 for Windows
Circuit: Z:\home\art\school\ece2001\lecturenotes\pas72.net
Start Time: Mon Mar 31 18:14:07 2025
solver = Normal
Maximum thread count: 32
tnom = 27
temp = 27
method = trap
Direct Newton iteration for .op point succeeded.
Total elapsed time: 0.064 seconds.

Files loaded:
Z:\home\art\school\ece2001\lecturenotes\pas72.net

