LTspice 24.1.7 for Windows
Circuit: C:\home\ece2001\Designprojects\design2\dp2t2.net
Start Time: Thu May  1 10:53:06 2025
solver = Normal
Maximum thread count: 32
tnom = 27
temp = 27
method = trap
Direct Newton iteration for .op point succeeded.
Total elapsed time: 0.118 seconds.

Files loaded:
C:\home\ece2001\Designprojects\design2\dp2t2.net
C:\Users\Arturo\AppData\Local\LTspice\lib\cmp\standard.mos
C:\Users\Arturo\Documents\LTspice\lm741\lm741.lib
C:\Users\Arturo\AppData\Local\LTspice\lib\sub\UniversalOpAmp1.lib

