LTspice 24.1.5 for Windows
Circuit: C:\home\ece2001\Designprojects\design2\dp2t2.net
Start Time: Wed Apr 23 15:18:27 2025
solver = Normal
Maximum thread count: 8
tnom = 27
temp = 27
method = trap
Direct Newton iteration for .op point succeeded.
Total elapsed time: 0.163 seconds.

Files loaded:
C:\home\ece2001\Designprojects\design2\dp2t2.net
C:\Users\artjs\AppData\Local\LTspice\lib\cmp\standard.mos
C:\Users\Arturo\Documents\LTspice\lm741\lm741.lib
C:\Users\artjs\AppData\Local\LTspice\lib\sub\UniversalOpAmp1.lib

