LTspice 24.1.7 for Windows
Circuit: C:\home\ece2001\Designprojects\design2\Draft1.net
Start Time: Tue Apr 15 09:34:18 2025
solver = Normal
Maximum thread count: 32
tnom = 27
temp = 27
method = trap
.OP point found by inspection.
Total elapsed time: 0.017 seconds.

Files loaded:
C:\home\ece2001\Designprojects\design2\Draft1.net

