LTspice 24.1.5 for Windows
Circuit: C:\home\ece2001\reports\report5\Circuit3.net
Start Time: Thu Mar 27 12:18:35 2025
solver = Normal
Maximum thread count: 8
tnom = 27
temp = 27
method = trap
Direct Newton iteration for .op point succeeded.
Total elapsed time: 0.329 seconds.

Files loaded:
C:\home\ece2001\reports\report5\Circuit3.net

