LTspice 24.1.5 for Windows
Circuit: C:\home\ece2001\reports\report5\Circuit4.net
Start Time: Thu Mar 27 12:53:31 2025
solver = Normal
Maximum thread count: 8
tnom = 27
temp = 27
method = trap
Direct Newton iteration for .op point succeeded.
Total elapsed time: 0.169 seconds.

Files loaded:
C:\home\ece2001\reports\report5\Circuit4.net

