LTspice 24.1.4 for Windows
Circuit: Z:\home\art\school\ECE2001-Electrical-Circuits\Designprojects\design1\Draft1.net
Start Time: Fri Mar 21 10:40:00 2025
solver = Normal
Maximum thread count: 32
tnom = 27
temp = 27
method = trap
Direct Newton iteration failed to find .op point.  (Use ".option noopiter" to skip.)
Starting Gmin stepping
Gmin = 10
vernier = 0.5
vernier = 0.666667
Gmin = 3.04418
vernier = 0.888888
Gmin = 0.5164
vernier = 1
Gmin = 0.0567082
Gmin = 0.006089
Gmin = 0.000653801
Gmin = 7.02013e-05
Gmin = 7.53781e-06
Gmin = 8.09366e-07
Gmin = 8.6905e-08
Gmin = 9.33136e-09
Gmin = 1.00195e-09
Gmin = 1.07583e-10
Gmin = 1.15517e-11
Gmin = 1.24035e-12
Gmin = 1.33182e-13
Gmin = 0
Gmin stepping succeeded in finding the operating point.

Total elapsed time: 0.063 seconds.

Files loaded:
Z:\home\art\school\ECE2001-Electrical-Circuits\Designprojects\design1\Draft1.net
C:\users\art\AppData\Local\LTspice\lib\cmp\standard.mos
C:\users\art\AppData\Local\LTspice\lib\sub\UniversalOpAmp1.lib

