LTspice 24.1.4 for Windows
Circuit: Z:\home\art\school\ECE2001-Electrical-Circuits\Designprojects\design1\Draft3.net
Start Time: Wed Mar 19 14:19:18 2025
solver = Normal
Maximum thread count: 32
tnom = 27
temp = 27
method = trap
Direct Newton iteration for .op point succeeded.
Total elapsed time: 0.062 seconds.

Files loaded:
Z:\home\art\school\ECE2001-Electrical-Circuits\Designprojects\design1\Draft3.net

