LTspice 24.1.5 for Windows
Circuit: C:\home\ece2001\Designprojects\design1\Draft3.net
Start Time: Wed Mar 26 10:51:47 2025
solver = Normal
Maximum thread count: 8
tnom = 27
temp = 27
method = trap
Direct Newton iteration for .op point succeeded.
Total elapsed time: 0.191 seconds.

Files loaded:
C:\home\ece2001\Designprojects\design1\Draft3.net

