LTspice 24.1.5 for Windows
Circuit: C:\home\ece2001\reports\report6\circuit4a.net
Start Time: Thu Apr  3 12:16:29 2025
solver = Normal
Maximum thread count: 8
tnom = 27
temp = 27
method = trap
.OP point found by inspection.
Total elapsed time: 0.068 seconds.

Files loaded:
C:\home\ece2001\reports\report6\circuit4a.net

