LTspice 24.1.5 for Windows
Circuit: Z:\home\art\school\ece2001\reports\report6\circuit3.net
Start Time: Thu Apr  3 17:11:57 2025
solver = Normal
Maximum thread count: 32
tnom = 27
temp = 27
method = trap
.OP point found by inspection.
Total elapsed time: 0.027 seconds.

Files loaded:
Z:\home\art\school\ece2001\reports\report6\circuit3.net

